
Version,
  22.2;                                   !- Version Identifier

Timestep,
  2;                                      !- Number of Timesteps per Hour

LifeCycleCost:Parameters,
  Life Cycle Cost Parameters,             !- Name
  EndOfYear,                              !- Discounting Convention
  ConstantDollar,                         !- Inflation Approach
  0.03,                                   !- Real Discount Rate
  ,                                       !- Nominal Discount Rate
  ,                                       !- Inflation
  ,                                       !- Base Date Month
  2011,                                   !- Base Date Year
  ,                                       !- Service Date Month
  2011,                                   !- Service Date Year
  25,                                     !- Length of Study Period in Years
  ,                                       !- Tax rate
  None;                                   !- Depreciation Method

LifeCycleCost:UsePriceEscalation,
  U.S. Avg  Commercial-Electricity,       !- Name
  Electricity,                            !- Resource
  2011,                                   !- Escalation Start Year
  January,                                !- Escalation Start Month
  0.9838,                                 !- Year Escalation 1
  0.9730,                                 !- Year Escalation 2
  0.9632,                                 !- Year Escalation 3
  0.9611,                                 !- Year Escalation 4
  0.9571,                                 !- Year Escalation 5
  0.9553,                                 !- Year Escalation 6
  0.9539,                                 !- Year Escalation 7
  0.9521,                                 !- Year Escalation 8
  0.9546,                                 !- Year Escalation 9
  0.9550,                                 !- Year Escalation 10
  0.9553,                                 !- Year Escalation 11
  0.9564,                                 !- Year Escalation 12
  0.9575,                                 !- Year Escalation 13
  0.9596,                                 !- Year Escalation 14
  0.9618,                                 !- Year Escalation 15
  0.9614,                                 !- Year Escalation 16
  0.9618,                                 !- Year Escalation 17
  0.9618,                                 !- Year Escalation 18
  0.9593,                                 !- Year Escalation 19
  0.9589,                                 !- Year Escalation 20
  0.9607,                                 !- Year Escalation 21
  0.9625,                                 !- Year Escalation 22
  0.9650,                                 !- Year Escalation 23
  0.9708,                                 !- Year Escalation 24
  0.9751,                                 !- Year Escalation 25
  0.9762,                                 !- Year Escalation 26
  0.9766,                                 !- Year Escalation 27
  0.9766,                                 !- Year Escalation 28
  0.9769,                                 !- Year Escalation 29
  0.9773;                                 !- Year Escalation 30

LifeCycleCost:UsePriceEscalation,
  U.S. Avg  Commercial-Distillate Oil,    !- Name
  FuelOilNo1,                             !- Resource
  2011,                                   !- Escalation Start Year
  January,                                !- Escalation Start Month
  0.9714,                                 !- Year Escalation 1
  0.9730,                                 !- Year Escalation 2
  0.9942,                                 !- Year Escalation 3
  1.0164,                                 !- Year Escalation 4
  1.0541,                                 !- Year Escalation 5
  1.0928,                                 !- Year Escalation 6
  1.1267,                                 !- Year Escalation 7
  1.1580,                                 !- Year Escalation 8
  1.1792,                                 !- Year Escalation 9
  1.1967,                                 !- Year Escalation 10
  1.2200,                                 !- Year Escalation 11
  1.2333,                                 !- Year Escalation 12
  1.2566,                                 !- Year Escalation 13
  1.2709,                                 !- Year Escalation 14
  1.2826,                                 !- Year Escalation 15
  1.2985,                                 !- Year Escalation 16
  1.3102,                                 !- Year Escalation 17
  1.3250,                                 !- Year Escalation 18
  1.3261,                                 !- Year Escalation 19
  1.3282,                                 !- Year Escalation 20
  1.3324,                                 !- Year Escalation 21
  1.3356,                                 !- Year Escalation 22
  1.3431,                                 !- Year Escalation 23
  1.3510,                                 !- Year Escalation 24
  1.3568,                                 !- Year Escalation 25
  1.3606,                                 !- Year Escalation 26
  1.3637,                                 !- Year Escalation 27
  1.3674,                                 !- Year Escalation 28
  1.3706,                                 !- Year Escalation 29
  1.3743;                                 !- Year Escalation 30

LifeCycleCost:UsePriceEscalation,
  U.S. Avg  Commercial-Residual Oil,      !- Name
  FuelOilNo2,                             !- Resource
  2011,                                   !- Escalation Start Year
  January,                                !- Escalation Start Month
  0.8469,                                 !- Year Escalation 1
  0.8257,                                 !- Year Escalation 2
  0.8681,                                 !- Year Escalation 3
  0.8988,                                 !- Year Escalation 4
  0.9289,                                 !- Year Escalation 5
  0.9604,                                 !- Year Escalation 6
  0.9897,                                 !- Year Escalation 7
  1.0075,                                 !- Year Escalation 8
  1.0314,                                 !- Year Escalation 9
  1.0554,                                 !- Year Escalation 10
  1.0861,                                 !- Year Escalation 11
  1.1278,                                 !- Year Escalation 12
  1.1497,                                 !- Year Escalation 13
  1.1620,                                 !- Year Escalation 14
  1.1743,                                 !- Year Escalation 15
  1.1852,                                 !- Year Escalation 16
  1.1948,                                 !- Year Escalation 17
  1.2037,                                 !- Year Escalation 18
  1.2071,                                 !- Year Escalation 19
  1.2119,                                 !- Year Escalation 20
  1.2139,                                 !- Year Escalation 21
  1.2194,                                 !- Year Escalation 22
  1.2276,                                 !- Year Escalation 23
  1.2365,                                 !- Year Escalation 24
  1.2420,                                 !- Year Escalation 25
  1.2461,                                 !- Year Escalation 26
  1.2509,                                 !- Year Escalation 27
  1.2550,                                 !- Year Escalation 28
  1.2591,                                 !- Year Escalation 29
  1.2638;                                 !- Year Escalation 30

LifeCycleCost:UsePriceEscalation,
  U.S. Avg  Commercial-Natural gas,       !- Name
  NaturalGas,                             !- Resource
  2011,                                   !- Escalation Start Year
  January,                                !- Escalation Start Month
  0.9823,                                 !- Year Escalation 1
  0.9557,                                 !- Year Escalation 2
  0.9279,                                 !- Year Escalation 3
  0.9257,                                 !- Year Escalation 4
  0.9346,                                 !- Year Escalation 5
  0.9412,                                 !- Year Escalation 6
  0.9512,                                 !- Year Escalation 7
  0.9645,                                 !- Year Escalation 8
  0.9856,                                 !- Year Escalation 9
  1.0067,                                 !- Year Escalation 10
  1.0222,                                 !- Year Escalation 11
  1.0410,                                 !- Year Escalation 12
  1.0610,                                 !- Year Escalation 13
  1.0787,                                 !- Year Escalation 14
  1.0942,                                 !- Year Escalation 15
  1.1098,                                 !- Year Escalation 16
  1.1220,                                 !- Year Escalation 17
  1.1308,                                 !- Year Escalation 18
  1.1386,                                 !- Year Escalation 19
  1.1486,                                 !- Year Escalation 20
  1.1619,                                 !- Year Escalation 21
  1.1763,                                 !- Year Escalation 22
  1.1918,                                 !- Year Escalation 23
  1.2118,                                 !- Year Escalation 24
  1.2284,                                 !- Year Escalation 25
  1.2439,                                 !- Year Escalation 26
  1.2605,                                 !- Year Escalation 27
  1.2772,                                 !- Year Escalation 28
  1.2938,                                 !- Year Escalation 29
  1.3115;                                 !- Year Escalation 30

LifeCycleCost:UsePriceEscalation,
  U.S. Avg  Commercial-Coal,              !- Name
  Coal,                                   !- Resource
  2011,                                   !- Escalation Start Year
  January,                                !- Escalation Start Month
  0.9970,                                 !- Year Escalation 1
  1.0089,                                 !- Year Escalation 2
  1.0089,                                 !- Year Escalation 3
  0.9941,                                 !- Year Escalation 4
  0.9941,                                 !- Year Escalation 5
  1.0000,                                 !- Year Escalation 6
  1.0030,                                 !- Year Escalation 7
  1.0059,                                 !- Year Escalation 8
  1.0089,                                 !- Year Escalation 9
  1.0119,                                 !- Year Escalation 10
  1.0148,                                 !- Year Escalation 11
  1.0178,                                 !- Year Escalation 12
  1.0208,                                 !- Year Escalation 13
  1.0267,                                 !- Year Escalation 14
  1.0297,                                 !- Year Escalation 15
  1.0356,                                 !- Year Escalation 16
  1.0415,                                 !- Year Escalation 17
  1.0534,                                 !- Year Escalation 18
  1.0564,                                 !- Year Escalation 19
  1.0593,                                 !- Year Escalation 20
  1.0653,                                 !- Year Escalation 21
  1.0712,                                 !- Year Escalation 22
  1.0742,                                 !- Year Escalation 23
  1.0801,                                 !- Year Escalation 24
  1.0831,                                 !- Year Escalation 25
  1.0831,                                 !- Year Escalation 26
  1.0861,                                 !- Year Escalation 27
  1.0890,                                 !- Year Escalation 28
  1.0920,                                 !- Year Escalation 29
  1.0950;                                 !- Year Escalation 30

Building,
  Building 1,                             !- Name
  -0,                                     !- North Axis {deg}
  ,                                       !- Terrain
  0.15,                                   !- Loads Convergence Tolerance Value {W}
  ,                                       !- Temperature Convergence Tolerance Value {deltaC}
  ,                                       !- Solar Distribution
  1000,                                   !- Maximum Number of Warmup Days
  ;                                       !- Minimum Number of Warmup Days

Zone,
  Thermal Zone 1,                         !- Name
  ,                                       !- Direction of Relative North {deg}
  0,                                      !- X Origin {m}
  0,                                      !- Y Origin {m}
  0,                                      !- Z Origin {m}
  ,                                       !- Type
  1,                                      !- Multiplier
  ,                                       !- Ceiling Height {m}
  ,                                       !- Volume {m3}
  ,                                       !- Floor Area {m2}
  ,                                       !- Zone Inside Convection Algorithm
  ,                                       !- Zone Outside Convection Algorithm
  Yes;                                    !- Part of Total Floor Area

Space,
  Space 1 - 20,                           !- Name
  Thermal Zone 1,                         !- Zone Name
  ,                                       !- Ceiling Height {m}
  ,                                       !- Volume {m3}
  ,                                       !- Floor Area {m2}
  189.1-2009 - Office - ClosedOffice - CZ4-8; !- Space Type

SpaceList,
  189.1-2009 - Office - ClosedOffice - CZ4-8, !- Name
  Space 1 - 9,                            !- Space Name 1
  Space 2 - 5,                            !- Space Name 2
  Space 1 - 1,                            !- Space Name 3
  Space 1 - 13,                           !- Space Name 4
  Corridor 1 - 1,                         !- Space Name 5
  Space 1 - 5,                            !- Space Name 6
  Space 1 - 34,                           !- Space Name 7
  Space 2 - 56,                           !- Space Name 8
  Space 1 - 11,                           !- Space Name 9
  Space 1 - 3,                            !- Space Name 10
  Space 1 - 20,                           !- Space Name 11
  Space 1 - 16,                           !- Space Name 12
  Space 1 - 39,                           !- Space Name 13
  Space 1 - 10,                           !- Space Name 14
  Space 1 - 15,                           !- Space Name 15
  Space 1 - 26,                           !- Space Name 16
  Space 1 - 31,                           !- Space Name 17
  Space 1 - 12,                           !- Space Name 18
  Space 1 - 14,                           !- Space Name 19
  Space 1 - 42,                           !- Space Name 20
  Space 1 - 40,                           !- Space Name 21
  Space 2 - 44,                           !- Space Name 22
  Space 1 - 4,                            !- Space Name 23
  Space 1 - 53,                           !- Space Name 24
  Space 2 - 51,                           !- Space Name 25
  Space 1 - 6,                            !- Space Name 26
  Space 1 - 8,                            !- Space Name 27
  Space 1 - 22,                           !- Space Name 28
  Space 1 - 7,                            !- Space Name 29
  Space 1 - 38,                           !- Space Name 30
  Space 1 - 23,                           !- Space Name 31
  Corridor 1 - 3,                         !- Space Name 32
  Space 1 - 18,                           !- Space Name 33
  Space 1 - 50,                           !- Space Name 34
  Space 1 - 30,                           !- Space Name 35
  Space 1 - 44,                           !- Space Name 36
  Space 1 - 17,                           !- Space Name 37
  Space 1 - 33,                           !- Space Name 38
  Space 1 - 19,                           !- Space Name 39
  Space 1 - 21,                           !- Space Name 40
  Space 1 - 47,                           !- Space Name 41
  Space 1 - 27,                           !- Space Name 42
  Corridor 2 - 1 (5),                     !- Space Name 43
  Space 1 - 24,                           !- Space Name 44
  Space 1 - 72,                           !- Space Name 45
  Space 1 - 25,                           !- Space Name 46
  Space 1 - 77,                           !- Space Name 47
  Space 1 - 28,                           !- Space Name 48
  Space 1 - 29,                           !- Space Name 49
  Space 1 - 32,                           !- Space Name 50
  Corridor 1 - 2,                         !- Space Name 51
  Space 1 - 49,                           !- Space Name 52
  Space 1 - 37,                           !- Space Name 53
  Space 1 - 43,                           !- Space Name 54
  Space 1 - 2,                            !- Space Name 55
  Space 1 - 35,                           !- Space Name 56
  Corridor 1 - 4,                         !- Space Name 57
  Space 1 - 52,                           !- Space Name 58
  Space 1 - 36,                           !- Space Name 59
  Corridor 1 - 4 (4),                     !- Space Name 60
  Space 1 - 56,                           !- Space Name 61
  Space 1 - 41,                           !- Space Name 62
  Space 1 - 45,                           !- Space Name 63
  Space 1 - 60,                           !- Space Name 64
  Space 1 - 51,                           !- Space Name 65
  Space 1 - 48,                           !- Space Name 66
  Corridor 1 - 4 (2),                     !- Space Name 67
  Corridor 1 - 4 (3),                     !- Space Name 68
  Space 1 - 55,                           !- Space Name 69
  Space 1 - 46,                           !- Space Name 70
  Space 2 - 21,                           !- Space Name 71
  Space 1 - 54,                           !- Space Name 72
  Space 1 - 57,                           !- Space Name 73
  Space 1 - 58,                           !- Space Name 74
  Space 1 - 59,                           !- Space Name 75
  Space 1 - 61,                           !- Space Name 76
  Space 1 - 62,                           !- Space Name 77
  Space 1 - 63,                           !- Space Name 78
  Space 1 - 64,                           !- Space Name 79
  Space 1 - 65,                           !- Space Name 80
  Space 1 - 66,                           !- Space Name 81
  Space 1 - 67,                           !- Space Name 82
  Space 1 - 68,                           !- Space Name 83
  Space 1 - 69,                           !- Space Name 84
  Space 1 - 70,                           !- Space Name 85
  Space 1 - 71,                           !- Space Name 86
  Space 1 - 73,                           !- Space Name 87
  Space 2 - 3,                            !- Space Name 88
  Space 1 - 74,                           !- Space Name 89
  Space 1 - 75,                           !- Space Name 90
  Space 1 - 76,                           !- Space Name 91
  Space 1 - 78,                           !- Space Name 92
  Corridor 2 - 1,                         !- Space Name 93
  Space 2 - 23,                           !- Space Name 94
  Space 2 - 1,                            !- Space Name 95
  Corridor 2 - 1 (2),                     !- Space Name 96
  Space 2 - 9,                            !- Space Name 97
  Space 2 - 15,                           !- Space Name 98
  Space 2 - 10,                           !- Space Name 99
  Space 2 - 52,                           !- Space Name 100
  Space 2 - 11,                           !- Space Name 101
  Space 2 - 12,                           !- Space Name 102
  Space 2 - 54,                           !- Space Name 103
  Space 2 - 13,                           !- Space Name 104
  Space 2 - 14,                           !- Space Name 105
  Space 2 - 2,                            !- Space Name 106
  Space 2 - 4,                            !- Space Name 107
  Space 2 - 6,                            !- Space Name 108
  Space 2 - 7,                            !- Space Name 109
  Space 2 - 8,                            !- Space Name 110
  Space 2 - 16,                           !- Space Name 111
  Space 2 - 17,                           !- Space Name 112
  Space 2 - 18,                           !- Space Name 113
  Space 2 - 19,                           !- Space Name 114
  Space 2 - 24,                           !- Space Name 115
  Space 2 - 20,                           !- Space Name 116
  Space 2 - 22,                           !- Space Name 117
  Space 2 - 25,                           !- Space Name 118
  Space 2 - 26,                           !- Space Name 119
  Space 2 - 28,                           !- Space Name 120
  Space 2 - 27,                           !- Space Name 121
  Corridor 2 - 1 (3),                     !- Space Name 122
  Corridor 2 - 1 (4),                     !- Space Name 123
  Space 2 - 33,                           !- Space Name 124
  Space 2 - 29,                           !- Space Name 125
  Space 2 - 30,                           !- Space Name 126
  Space 2 - 31,                           !- Space Name 127
  Space 2 - 32,                           !- Space Name 128
  Space 2 - 34,                           !- Space Name 129
  Space 2 - 35,                           !- Space Name 130
  Space 2 - 36,                           !- Space Name 131
  Space 2 - 37,                           !- Space Name 132
  Space 2 - 39,                           !- Space Name 133
  Space 2 - 38,                           !- Space Name 134
  Space 2 - 40,                           !- Space Name 135
  Space 2 - 41,                           !- Space Name 136
  Space 2 - 42,                           !- Space Name 137
  Space 2 - 43,                           !- Space Name 138
  Space 2 - 49,                           !- Space Name 139
  Space 2 - 45,                           !- Space Name 140
  Space 2 - 46,                           !- Space Name 141
  Space 2 - 47,                           !- Space Name 142
  Space 2 - 48,                           !- Space Name 143
  Space 2 - 50,                           !- Space Name 144
  Corridor 2 - 1 (6),                     !- Space Name 145
  Space 2 - 53,                           !- Space Name 146
  Space 2 - 55,                           !- Space Name 147
  Space 2 - 57;                           !- Space Name 148

Lights,
  189.1-2009 - Office - ClosedOffice - CZ4-8 Lights, !- Name
  189.1-2009 - Office - ClosedOffice - CZ4-8, !- Zone or ZoneList or Space or SpaceList Name
  Office Bldg Light,                      !- Schedule Name
  Watts/Area,                             !- Design Level Calculation Method
  ,                                       !- Lighting Level {W}
  10.6562713125426,                       !- Watts per Zone Floor Area {W/m2}
  ,                                       !- Watts per Person {W/person}
  ,                                       !- Return Air Fraction
  ,                                       !- Fraction Radiant
  ,                                       !- Fraction Visible
  ,                                       !- Fraction Replaceable
  General;                                !- End-Use Subcategory

ScheduleTypeLimits,
  Fraction,                               !- Name
  0,                                      !- Lower Limit Value {BasedOnField A3}
  1,                                      !- Upper Limit Value {BasedOnField A3}
  CONTINUOUS;                             !- Numeric Type

Schedule:Day:Interval,
  Office Bldg Light Rule 1 Day Schedule,  !- Name
  Fraction,                               !- Schedule Type Limits Name
  No,                                     !- Interpolate to Timestep
  24:00,                                  !- Time 1 {hh:mm}
  0.05;                                   !- Value Until Time 1

Schedule:Day:Interval,
  Office Bldg Light Default Schedule,     !- Name
  Fraction,                               !- Schedule Type Limits Name
  No,                                     !- Interpolate to Timestep
  05:00,                                  !- Time 1 {hh:mm}
  0.05,                                   !- Value Until Time 1
  07:00,                                  !- Time 2 {hh:mm}
  0.1,                                    !- Value Until Time 2
  08:00,                                  !- Time 3 {hh:mm}
  0.3,                                    !- Value Until Time 3
  17:00,                                  !- Time 4 {hh:mm}
  0.9,                                    !- Value Until Time 4
  18:00,                                  !- Time 5 {hh:mm}
  0.7,                                    !- Value Until Time 5
  20:00,                                  !- Time 6 {hh:mm}
  0.5,                                    !- Value Until Time 6
  22:00,                                  !- Time 7 {hh:mm}
  0.3,                                    !- Value Until Time 7
  23:00,                                  !- Time 8 {hh:mm}
  0.1,                                    !- Value Until Time 8
  24:00,                                  !- Time 9 {hh:mm}
  0.05;                                   !- Value Until Time 9

Schedule:Day:Interval,
  Office Bldg Light Rule 2 Day Schedule,  !- Name
  Fraction,                               !- Schedule Type Limits Name
  No,                                     !- Interpolate to Timestep
  06:00,                                  !- Time 1 {hh:mm}
  0.05,                                   !- Value Until Time 1
  08:00,                                  !- Time 2 {hh:mm}
  0.1,                                    !- Value Until Time 2
  14:00,                                  !- Time 3 {hh:mm}
  0.5,                                    !- Value Until Time 3
  17:00,                                  !- Time 4 {hh:mm}
  0.15,                                   !- Value Until Time 4
  24:00,                                  !- Time 5 {hh:mm}
  0.05;                                   !- Value Until Time 5

Schedule:Week:Daily,
  Office Bldg Light Week Rule - Jan1-Dec31, !- Name
  Office Bldg Light Rule 1 Day Schedule,  !- Sunday Schedule:Day Name
  Office Bldg Light Default Schedule,     !- Monday Schedule:Day Name
  Office Bldg Light Default Schedule,     !- Tuesday Schedule:Day Name
  Office Bldg Light Default Schedule,     !- Wednesday Schedule:Day Name
  Office Bldg Light Default Schedule,     !- Thursday Schedule:Day Name
  Office Bldg Light Default Schedule,     !- Friday Schedule:Day Name
  Office Bldg Light Rule 2 Day Schedule,  !- Saturday Schedule:Day Name
  Office Bldg Light Default Schedule,     !- Holiday Schedule:Day Name
  Office Bldg Light Summer Design Day,    !- SummerDesignDay Schedule:Day Name
  Office Bldg Light Winter Design Day,    !- WinterDesignDay Schedule:Day Name
  Office Bldg Light Default Schedule,     !- CustomDay1 Schedule:Day Name
  Office Bldg Light Default Schedule;     !- CustomDay2 Schedule:Day Name

Schedule:Year,
  Office Bldg Light,                      !- Name
  Fraction,                               !- Schedule Type Limits Name
  Office Bldg Light Week Rule - Jan1-Dec31, !- Schedule:Week Name 1
  1,                                      !- Start Month 1
  1,                                      !- Start Day 1
  12,                                     !- End Month 1
  31;                                     !- End Day 1

Schedule:Day:Interval,
  Office Bldg Light Summer Design Day,    !- Name
  Fraction,                               !- Schedule Type Limits Name
  No,                                     !- Interpolate to Timestep
  24:00,                                  !- Time 1 {hh:mm}
  1;                                      !- Value Until Time 1

Schedule:Day:Interval,
  Office Bldg Light Winter Design Day,    !- Name
  Fraction,                               !- Schedule Type Limits Name
  No,                                     !- Interpolate to Timestep
  24:00,                                  !- Time 1 {hh:mm}
  0;                                      !- Value Until Time 1

People,
  189.1-2009 - Office - ClosedOffice - CZ4-8 People, !- Name
  189.1-2009 - Office - ClosedOffice - CZ4-8, !- Zone or ZoneList or Space or SpaceList Name
  Office Work Occ,                        !- Number of People Schedule Name
  People/Area,                            !- Number of People Calculation Method
  ,                                       !- Number of People
  0.0511285744793712,                     !- People per Floor Area {person/m2}
  ,                                       !- Floor Area per Person {m2/person}
  0.3,                                    !- Fraction Radiant
  ,                                       !- Sensible Heat Fraction
  Office Activity;                        !- Activity Level Schedule Name

Schedule:Day:Interval,
  Office Bldg Occ Rule 1 Day Schedule,    !- Name
  Fraction,                               !- Schedule Type Limits Name
  No,                                     !- Interpolate to Timestep
  24:00,                                  !- Time 1 {hh:mm}
  0;                                      !- Value Until Time 1

Schedule:Day:Interval,
  Office Bldg Occ Default Schedule,       !- Name
  Fraction,                               !- Schedule Type Limits Name
  No,                                     !- Interpolate to Timestep
  06:00,                                  !- Time 1 {hh:mm}
  0,                                      !- Value Until Time 1
  07:00,                                  !- Time 2 {hh:mm}
  0.100000001490116,                      !- Value Until Time 2
  08:00,                                  !- Time 3 {hh:mm}
  0.200000002980232,                      !- Value Until Time 3
  12:00,                                  !- Time 4 {hh:mm}
  0.850000023841858,                      !- Value Until Time 4